<configuration>
	
	<input>
		<net-file value="tcNet.net.xml"/>
		<route-files value="routes.rou.xml"/>	
	</input>
	<time>
		<begin value="0"/>
		<end value="100000"/>
	</time>
	
</configuration>