<nodes>
	<node id="IN" x="-25000" y="0" />
	<node id="C" x="-23000" y="0" />
	<node id="D" x="23000" y="0" />
	<node id="OUT" x="25000" y="0" />
</nodes>